Auto-Transcript Start Time:  10:54:15, 23 Mar 2026 
Current Directory: "/home/aoki/Downloads/cfd_wall_function_tst"
/home/opt/ansys/v252/fluent/fluent25.2.0/bin/fluent -r25.2.0 2ddp -pdefault -host -t64 -mpi=intel -path/home/opt/ansys/v252/fluent -ssh -cx localhost:37363:40063
Warning:  DISPLAY environment variable is not set.
  Graphics and GUI will not operate correctly
  without this being set properly.
Starting /home/opt/ansys/v252/fluent/fluent25.2.0/lnamd64/2ddp_host/fluent.25.2.0 host -cx localhost:37363:40063 "(list (rpsetvar (QUOTE parallel/function) "fluent 2ddp -flux -node -r25.2.0 -t64 -pdefault -mpi=intel -ssh") (rpsetvar (QUOTE parallel/rhost) "") (rpsetvar (QUOTE parallel/ruser) "") (rpsetvar (QUOTE parallel/nprocs_string) "64") (rpsetvar (QUOTE parallel/auto-spawn?) #t) (rpsetvar (QUOTE parallel/trace-level) 0) (rpsetvar (QUOTE parallel/remote-shell) 1) (rpsetvar (QUOTE parallel/path) "/home/opt/ansys/v252/fluent") (rpsetvar (QUOTE parallel/hostsfile) "") (rpsetvar (QUOTE gpuapp/devices) ""))"

              Welcome to ANSYS Fluent 25.2.0

              Copyright 1987-2025 ANSYS, Inc. All Rights Reserved.
              Unauthorized use, distribution or duplication is prohibited.
              This product is subject to U.S. laws governing export and re-export.
              For full Legal Notice, see documentation.

Build Time: Jun 16 2025 09:42:17 EDT  Build Id: 10204  
 
Connected License Server List:	1055@localhost

     --------------------------------------------------------------
     This is an academic version of ANSYS FLUENT. Usage of this product
     license is limited to the terms and conditions specified in your ANSYS
     license form, additional terms section.
     --------------------------------------------------------------
Host spawning Node 0 on machine "localhost.localdomain" (unix).

999999: mpt_get_dot_address: warning: localhost.localdomain -> 127.0.0.1. Check your system network configuration!
999999: mpt_get_dot_address: warning: localhost.localdomain -> 127.0.0.1. Check your system network configuration!/home/opt/ansys/v252/fluent/fluent25.2.0/bin/fluent -r25.2.0 2ddp -flux -node -t64 -pdefault -mpi=intel -ssh -mport 127.0.0.1:127.0.0.1:36283:0
Starting /home/opt/ansys/v252/fluent/fluent25.2.0/multiport/mpi/lnamd64/intel/bin/mpirun -f /tmp/fluent-appfile.aoki.283551 -genv I_MPI_FABRICS shm -genv FLUENT_ARCH lnamd64 -genv I_MPI_DEBUG 0 -genv I_MPI_ADJUST_GATHERV 3 -genv I_MPI_ADJUST_ALLREDUCE 2 -genv I_MPI_PLATFORM auto -genv PYTHONHOME /home/opt/ansys/v252/fluent/fluent25.2.0/../../commonfiles/CPython/3_10/linx64/Release/python -genv FLUENT_PROD_DIR /home/opt/ansys/v252/fluent/fluent25.2.0 -genv FLUENT_AFFINITY 0 -genv I_MPI_PIN enable -genv KMP_AFFINITY disabled -n 64 /home/opt/ansys/v252/fluent/fluent25.2.0/lnamd64/2ddp_node/fluent_mpi.25.2.0 node -mpiw intel -pic shmem -mport 127.0.0.1:127.0.0.1:36283:0

0: mpt_get_dot_address: warning: localhost.localdomain -> 127.0.0.1. Check your system network configuration!
1: mpt_get_dot_address: warning: localhost.localdomain -> 127.0.0.1. Check your system network configuration!
2: mpt_get_dot_address: warning: localhost.localdomain -> 127.0.0.1. Check your system network configuration!
3: mpt_get_dot_address: warning: localhost.localdomain -> 127.0.0.1. Check your system network configuration!
4: mpt_get_dot_address: warning: localhost.localdomain -> 127.0.0.1. Check your system network configuration!
5: mpt_get_dot_address: warning: localhost.localdomain -> 127.0.0.1. Check your system network configuration!
6: mpt_get_dot_address: warning: localhost.localdomain -> 127.0.0.1. Check your system network configuration!
7: mpt_get_dot_address: warning: localhost.localdomain -> 127.0.0.1. Check your system network configuration!
8: mpt_get_dot_address: warning: localhost.localdomain -> 127.0.0.1. Check your system network configuration!
10: mpt_get_dot_address: warning: localhost.localdomain -> 127.0.0.1. Check your system network configuration!
11: mpt_get_dot_address: warning: localhost.localdomain -> 127.0.0.1. Check your system network configuration!
14: mpt_get_dot_address: warning: localhost.localdomain -> 127.0.0.1. Check your system network configuration!
15: mpt_get_dot_address: warning: localhost.localdomain -> 127.0.0.1. Check your system network configuration!
28: mpt_get_dot_address: warning: localhost.localdomain -> 127.0.0.1. Check your system network configuration!
29: mpt_get_dot_address: warning: localhost.localdomain -> 127.0.0.1. Check your system network configuration!
31: mpt_get_dot_address: warning: localhost.localdomain -> 127.0.0.1. Check your system network configuration!
38: mpt_get_dot_address: warning: localhost.localdomain -> 127.0.0.1. Check your system network configuration!
39: mpt_get_dot_address: warning: localhost.localdomain -> 127.0.0.1. Check your system network configuration!
52: mpt_get_dot_address: warning: localhost.localdomain -> 127.0.0.1. Check your system network configuration!
54: mpt_get_dot_address: warning: localhost.localdomain -> 127.0.0.1. Check your system network configuration!
60: mpt_get_dot_address: warning: localhost.localdomain -> 127.0.0.1. Check your system network configuration!
62: mpt_get_dot_address: warning: localhost.localdomain -> 127.0.0.1. Check your system network configuration!
63: mpt_get_dot_address: warning: localhost.localdomain -> 127.0.0.1. Check your system network configuration!
9: mpt_get_dot_address: warning: localhost.localdomain -> 127.0.0.1. Check your system network configuration!
12: mpt_get_dot_address: warning: localhost.localdomain -> 127.0.0.1. Check your system network configuration!
13: mpt_get_dot_address: warning: localhost.localdomain -> 127.0.0.1. Check your system network configuration!
16: mpt_get_dot_address: warning: localhost.localdomain -> 127.0.0.1. Check your system network configuration!
17: mpt_get_dot_address: warning: localhost.localdomain -> 127.0.0.1. Check your system network configuration!
18: mpt_get_dot_address: warning: localhost.localdomain -> 127.0.0.1. Check your system network configuration!
19: mpt_get_dot_address: warning: localhost.localdomain -> 127.0.0.1. Check your system network configuration!
20: mpt_get_dot_address: warning: localhost.localdomain -> 127.0.0.1. Check your system network configuration!
21: mpt_get_dot_address: warning: localhost.localdomain -> 127.0.0.1. Check your system network configuration!
22: mpt_get_dot_address: warning: localhost.localdomain -> 127.0.0.1. Check your system network configuration!
23: mpt_get_dot_address: warning: localhost.localdomain -> 127.0.0.1. Check your system network configuration!
24: mpt_get_dot_address: warning: localhost.localdomain -> 127.0.0.1. Check your system network configuration!
25: mpt_get_dot_address: warning: localhost.localdomain -> 127.0.0.1. Check your system network configuration!
26: mpt_get_dot_address: warning: localhost.localdomain -> 127.0.0.1. Check your system network configuration!
27: mpt_get_dot_address: warning: localhost.localdomain -> 127.0.0.1. Check your system network configuration!
30: mpt_get_dot_address: warning: localhost.localdomain -> 127.0.0.1. Check your system network configuration!
32: mpt_get_dot_address: warning: localhost.localdomain -> 127.0.0.1. Check your system network configuration!
33: mpt_get_dot_address: warning: localhost.localdomain -> 127.0.0.1. Check your system network configuration!
34: mpt_get_dot_address: warning: localhost.localdomain -> 127.0.0.1. Check your system network configuration!
35: mpt_get_dot_address: warning: localhost.localdomain -> 127.0.0.1. Check your system network configuration!
36: mpt_get_dot_address: warning: localhost.localdomain -> 127.0.0.1. Check your system network configuration!
37: mpt_get_dot_address: warning: localhost.localdomain -> 127.0.0.1. Check your system network configuration!
40: mpt_get_dot_address: warning: localhost.localdomain -> 127.0.0.1. Check your system network configuration!
41: mpt_get_dot_address: warning: localhost.localdomain -> 127.0.0.1. Check your system network configuration!
42: mpt_get_dot_address: warning: localhost.localdomain -> 127.0.0.1. Check your system network configuration!
43: mpt_get_dot_address: warning: localhost.localdomain -> 127.0.0.1. Check your system network configuration!
44: mpt_get_dot_address: warning: localhost.localdomain -> 127.0.0.1. Check your system network configuration!
45: mpt_get_dot_address: warning: localhost.localdomain -> 127.0.0.1. Check your system network configuration!
46: mpt_get_dot_address: warning: localhost.localdomain -> 127.0.0.1. Check your system network configuration!
47: mpt_get_dot_address: warning: localhost.localdomain -> 127.0.0.1. Check your system network configuration!
48: mpt_get_dot_address: warning: localhost.localdomain -> 127.0.0.1. Check your system network configuration!
49: mpt_get_dot_address: warning: localhost.localdomain -> 127.0.0.1. Check your system network configuration!
50: mpt_get_dot_address: warning: localhost.localdomain -> 127.0.0.1. Check your system network configuration!
51: mpt_get_dot_address: warning: localhost.localdomain -> 127.0.0.1. Check your system network configuration!
53: mpt_get_dot_address: warning: localhost.localdomain -> 127.0.0.1. Check your system network configuration!
55: mpt_get_dot_address: warning: localhost.localdomain -> 127.0.0.1. Check your system network configuration!
56: mpt_get_dot_address: warning: localhost.localdomain -> 127.0.0.1. Check your system network configuration!
57: mpt_get_dot_address: warning: localhost.localdomain -> 127.0.0.1. Check your system network configuration!
58: mpt_get_dot_address: warning: localhost.localdomain -> 127.0.0.1. Check your system network configuration!
59: mpt_get_dot_address: warning: localhost.localdomain -> 127.0.0.1. Check your system network configuration!
61: mpt_get_dot_address: warning: localhost.localdomain -> 127.0.0.1. Check your system network configuration!
-------------------------------------------------------------------------------------
ID     Hostname              Core    O.S.      PID            Vendor                
-------------------------------------------------------------------------------------
n0-63  localhost.localdomai  64/128  Linux-64  283621-283684  AMD EPYC 9354 32-Core 
host   localhost.localdomai          Linux-64  283156         AMD EPYC 9354 32-Core 

MPI Option Selected: intel
Selected system interconnect: shared-memory
-------------------------------------------------------------------------------------


999999: mpt_get_dot_address: warning: localhost.localdomain -> 127.0.0.1. Check your system network configuration!
1: mpt_get_dot_address: warning: localhost.localdomain -> 127.0.0.1. Check your system network configuration!
2: mpt_get_dot_address: warning: localhost.localdomain -> 127.0.0.1. Check your system network configuration!
3: mpt_get_dot_address: warning: localhost.localdomain -> 127.0.0.1. Check your system network configuration!
32: mpt_get_dot_address: warning: localhost.localdomain -> 127.0.0.1. Check your system network configuration!
33: mpt_get_dot_address: warning: localhost.localdomain -> 127.0.0.1. Check your system network configuration!
34: mpt_get_dot_address: warning: localhost.localdomain -> 127.0.0.1. Check your system network configuration!
36: mpt_get_dot_address: warning: localhost.localdomain -> 127.0.0.1. Check your system network configuration!
37: mpt_get_dot_address: warning: localhost.localdomain -> 127.0.0.1. Check your system network configuration!
38: mpt_get_dot_address: warning: localhost.localdomain -> 127.0.0.1. Check your system network configuration!
39: mpt_get_dot_address: warning: localhost.localdomain -> 127.0.0.1. Check your system network configuration!
40: mpt_get_dot_address: warning: localhost.localdomain -> 127.0.0.1. Check your system network configuration!
42: mpt_get_dot_address: warning: localhost.localdomain -> 127.0.0.1. Check your system network configuration!
43: mpt_get_dot_address: warning: localhost.localdomain -> 127.0.0.1. Check your system network configuration!
52: mpt_get_dot_address: warning: localhost.localdomain -> 127.0.0.1. Check your system network configuration!
53: mpt_get_dot_address: warning: localhost.localdomain -> 127.0.0.1. Check your system network configuration!
54: mpt_get_dot_address: warning: localhost.localdomain -> 127.0.0.1. Check your system network configuration!
55: mpt_get_dot_address: warning: localhost.localdomain -> 127.0.0.1. Check your system network configuration!
56: mpt_get_dot_address: warning: localhost.localdomain -> 127.0.0.1. Check your system network configuration!
57: mpt_get_dot_address: warning: localhost.localdomain -> 127.0.0.1. Check your system network configuration!
58: mpt_get_dot_address: warning: localhost.localdomain -> 127.0.0.1. Check your system network configuration!
59: mpt_get_dot_address: warning: localhost.localdomain -> 127.0.0.1. Check your system network configuration!
60: mpt_get_dot_address: warning: localhost.localdomain -> 127.0.0.1. Check your system network configuration!
61: mpt_get_dot_address: warning: localhost.localdomain -> 127.0.0.1. Check your system network configuration!
62: mpt_get_dot_address: warning: localhost.localdomain -> 127.0.0.1. Check your system network configuration!
63: mpt_get_dot_address: warning: localhost.localdomain -> 127.0.0.1. Check your system network configuration!
0: mpt_get_dot_address: warning: localhost.localdomain -> 127.0.0.1. Check your system network configuration!
4: mpt_get_dot_address: warning: localhost.localdomain -> 127.0.0.1. Check your system network configuration!
5: mpt_get_dot_address: warning: localhost.localdomain -> 127.0.0.1. Check your system network configuration!
6: mpt_get_dot_address: warning: localhost.localdomain -> 127.0.0.1. Check your system network configuration!
7: mpt_get_dot_address: warning: localhost.localdomain -> 127.0.0.1. Check your system network configuration!
8: mpt_get_dot_address: warning: localhost.localdomain -> 127.0.0.1. Check your system network configuration!
9: mpt_get_dot_address: warning: localhost.localdomain -> 127.0.0.1. Check your system network configuration!
10: mpt_get_dot_address: warning: localhost.localdomain -> 127.0.0.1. Check your system network configuration!
11: mpt_get_dot_address: warning: localhost.localdomain -> 127.0.0.1. Check your system network configuration!
12: mpt_get_dot_address: warning: localhost.localdomain -> 127.0.0.1. Check your system network configuration!
13: mpt_get_dot_address: warning: localhost.localdomain -> 127.0.0.1. Check your system network configuration!
14: mpt_get_dot_address: warning: localhost.localdomain -> 127.0.0.1. Check your system network configuration!
15: mpt_get_dot_address: warning: localhost.localdomain -> 127.0.0.1. Check your system network configuration!
16: mpt_get_dot_address: warning: localhost.localdomain -> 127.0.0.1. Check your system network configuration!
17: mpt_get_dot_address: warning: localhost.localdomain -> 127.0.0.1. Check your system network configuration!
18: mpt_get_dot_address: warning: localhost.localdomain -> 127.0.0.1. Check your system network configuration!
19: mpt_get_dot_address: warning: localhost.localdomain -> 127.0.0.1. Check your system network configuration!
20: mpt_get_dot_address: warning: localhost.localdomain -> 127.0.0.1. Check your system network configuration!
21: mpt_get_dot_address: warning: localhost.localdomain -> 127.0.0.1. Check your system network configuration!
22: mpt_get_dot_address: warning: localhost.localdomain -> 127.0.0.1. Check your system network configuration!
23: mpt_get_dot_address: warning: localhost.localdomain -> 127.0.0.1. Check your system network configuration!
24: mpt_get_dot_address: warning: localhost.localdomain -> 127.0.0.1. Check your system network configuration!
25: mpt_get_dot_address: warning: localhost.localdomain -> 127.0.0.1. Check your system network configuration!
26: mpt_get_dot_address: warning: localhost.localdomain -> 127.0.0.1. Check your system network configuration!
27: mpt_get_dot_address: warning: localhost.localdomain -> 127.0.0.1. Check your system network configuration!
28: mpt_get_dot_address: warning: localhost.localdomain -> 127.0.0.1. Check your system network configuration!
29: mpt_get_dot_address: warning: localhost.localdomain -> 127.0.0.1. Check your system network configuration!
30: mpt_get_dot_address: warning: localhost.localdomain -> 127.0.0.1. Check your system network configuration!
31: mpt_get_dot_address: warning: localhost.localdomain -> 127.0.0.1. Check your system network configuration!
35: mpt_get_dot_address: warning: localhost.localdomain -> 127.0.0.1. Check your system network configuration!
41: mpt_get_dot_address: warning: localhost.localdomain -> 127.0.0.1. Check your system network configuration!
44: mpt_get_dot_address: warning: localhost.localdomain -> 127.0.0.1. Check your system network configuration!
45: mpt_get_dot_address: warning: localhost.localdomain -> 127.0.0.1. Check your system network configuration!
46: mpt_get_dot_address: warning: localhost.localdomain -> 127.0.0.1. Check your system network configuration!
47: mpt_get_dot_address: warning: localhost.localdomain -> 127.0.0.1. Check your system network configuration!
48: mpt_get_dot_address: warning: localhost.localdomain -> 127.0.0.1. Check your system network configuration!
49: mpt_get_dot_address: warning: localhost.localdomain -> 127.0.0.1. Check your system network configuration!
50: mpt_get_dot_address: warning: localhost.localdomain -> 127.0.0.1. Check your system network configuration!
51: mpt_get_dot_address: warning: localhost.localdomain -> 127.0.0.1. Check your system network configuration!Cleanup script file is /home/aoki/Downloads/cfd_wall_function_tst/cleanup-fluent-localhost.localdomain-283156.sh

Graphics driver currently in use: null


Posting ANSYS Product Improvement Program startup data
Done.

Reading journal file /home/aoki/Downloads/cfd_wall_function_tst/setup.jou...

> ; ================================================================
; Fluent Journal: 2D Channel Flow - Wall Function Comparison
; Fluent 25.2  /  k-omega SST (wall-resolved, y+~1)
; ================================================================

; メッシュ読み込み
/file/read-case "/home/aoki/Downloads/cfd_wall_function_tst/channel.msh"WARNING: Rank:0 Machine localhost.localdomain has 19 % of RAM filled with file buffer caches.
This can cause potential performance issues. Please use -cflush flag to flush the cache. 


Reading "/home/aoki/Downloads/cfd_wall_function_tst/channel.msh"...

Buffering for file scan...

    5151 nodes.
    5000 quadrilateral cells, zone  1.
      50 2D velocity-inlet faces, zone  2.
      50 2D pressure-outlet faces, zone  3.
     100 2D wall faces, zone  4.
     100 2D wall faces, zone  5.
    9850 2D interior faces, zone  6.

Building...
     mesh
	auto partitioning mesh by Metis (fast),
	distributing mesh
		parts..................................................,
		faces..................................................,
		nodes..................................................,
		cells..................................................,
        bandwidth reduction using Reverse Cuthill-McKee: 12/9 = 1.33333
     materials,
     interface,
     domains,
     zones,
	interior-6
	top-wall
	bottom-wall
	outlet
	inlet
	fluid
     parallel,
Done.


> 
adjoint/                parallel/               server/
define/                 parametric-study/       solve/
display/                plot/                   surface/
exit                    preferences/            views/
file/                   print-license-usage
mesh/                   report/

> ; ── 乱流モデル: k-ω SST (壁面解像) ───────────────────────────
/define/models/viscous/kw-sst yes

> 
adjoint/                parallel/               server/
define/                 parametric-study/       solve/
display/                plot/                   surface/
exit                    preferences/            views/
file/                   print-license-usage
mesh/                   report/

> ; ── 境界条件: 速度入口 ────────────────────────────────────────
; Velocity Specification Method: Magnitude and Direction [no] -> no
; Velocity Specification Method: Components [no]              -> no
; Velocity Specification Method: Magnitude, Normal to Boundary [yes] -> yes
; Reference Frame: Absolute [yes]                             -> yes
; Use Profile for Velocity Magnitude? [no]                    -> no
; Velocity Magnitude [m/s] [0]                                -> 5.0
; Use Profile for Supersonic/Initial Gauge Pressure? [no]     -> no
; Supersonic/Initial Gauge Pressure [Pa] [0]                  -> 0
; Turbulence: K and Omega [no]                                -> no
; Turbulence: Intensity and Length Scale [no]                 -> no
; Turbulence: Intensity and Viscosity Ratio [yes]             -> no
; Turbulence: Intensity and Hydraulic Diameter [no]           -> yes
; Turbulent Intensity [%] [5]                                 -> 5
; Hydraulic Diameter [m] [1]                                  -> 0.2
/define/boundary-conditions/velocity-inlet
(inlet)
zone id/name [inlet] inlet
Velocity Specification Method: Magnitude and Direction [no] no
Velocity Specification Method: Components [no] no
Velocity Specification Method: Magnitude, Normal to Boundary [yes] yes
Reference Frame: Absolute [yes] yes
Use Profile for Velocity Magnitude? [no] no
Velocity Magnitude (constant or expression) (in [m/s]) [0] 5.0
Use Profile for Supersonic/Initial Gauge Pressure? [no] no
Supersonic/Initial Gauge Pressure (constant or expression) (in [Pa]) [0] 0
Turbulence Specification Method: K and Omega [no] no
Turbulence Specification Method: Intensity and Length Scale [no] no
Turbulence Specification Method: Intensity and Viscosity Ratio [yes] no
Turbulence Specification Method: Intensity and Hydraulic Diameter [no] yes
Turbulent Intensity (constant or expression) (in [% for constant or fraction for expression]) [5] 5
Hydraulic Diameter (constant or expression) (in [m]) [1] 0.2

> 
adjoint/                parallel/               server/
define/                 parametric-study/       solve/
display/                plot/                   surface/
exit                    preferences/            views/
file/                   print-license-usage
mesh/                   report/

> ; ── 境界条件: 圧力出口 ───────────────────────────────────────
; Backflow Reference Frame: Absolute [yes]                    -> yes
; Use Profile for Gauge Pressure? [no]                        -> no
; Gauge Pressure [Pa] [0]                                     -> 0
; Backflow Direction: Direction Vector [no]                   -> no
; Backflow Direction: Normal to Boundary [yes]                -> yes
; Turbulence: K and Omega [no]                                -> no
; Turbulence: Intensity and Length Scale [no]                 -> no
; Turbulence: Intensity and Viscosity Ratio [yes]             -> no
; Turbulence: Intensity and Hydraulic Diameter [no]           -> yes
; Backflow Turbulent Intensity [%] [5]                        -> 5
; Backflow Hydraulic Diameter [m] [1]                         -> 0.2
; Backflow Pressure Specification: Total Pressure [yes]       -> yes
; Average Pressure Specification? [no]                        -> no
; Specify targeted mass flow rate [no]                        -> no
/define/boundary-conditions/pressure-outlet
(outlet)
zone id/name [outlet] outlet
Backflow Reference Frame: Absolute [yes] yes
Use Profile for Gauge Pressure? [no] no
Gauge Pressure (constant or expression) (in [Pa]) [0] 0
Backflow Direction Specification Method: Direction Vector [no] no
Backflow Direction Specification Method: Normal to Boundary [yes] yes
Turbulence Specification Method: K and Omega [no] no
Turbulence Specification Method: Intensity and Length Scale [no] no
Turbulence Specification Method: Intensity and Viscosity Ratio [yes] no
Turbulence Specification Method: Intensity and Hydraulic Diameter [no] yes
Backflow Turbulent Intensity (constant or expression) (in [% for constant or fraction for expression]) [5] 5
Backflow Hydraulic Diameter (constant or expression) (in [m]) [1] 0.2
Backflow Pressure Specification: Total Pressure [yes] yes
Average Pressure Specification? [no] no
Specify targeted mass flow rate [no] no

> 
adjoint/                parallel/               server/
define/                 parametric-study/       solve/
display/                plot/                   surface/
exit                    preferences/            views/
file/                   print-license-usage
mesh/                   report/

> ; ── 初期化 & 計算 ─────────────────────────────────────────────
/solve/initialize/initialize-flow

> /solve/iterate 500

  iter  continuity  x-velocity  y-velocity           k       omega     time/iter
     1  1.0000e+00  1.8682e+02  0.0000e+00  2.2895e-05  1.9090e+04  0:00:32  499
     2  1.0000e+00  1.9850e-02  2.9448e-03  7.7773e-01  4.3077e-01  0:00:31  498
     3  1.0000e+00  5.4212e-03  7.2185e-04  5.1227e-01  3.3125e-01  0:00:27  497
     4  8.7744e-01  9.3898e-04  1.9770e-04  4.6847e-01  3.0917e-01  0:00:24  496
     5  5.5654e-01  5.0791e-04  9.7934e-05  3.2805e-01  2.3875e-01  0:00:22  495
     6  4.4476e-01  2.9128e-04  6.1505e-05  2.6478e-01  1.7378e-01  0:00:20  494
     7  3.4823e-01  2.0515e-04  3.8793e-05  2.4063e-01  1.2015e-01  0:00:19  493
     8  3.0373e-01  1.4540e-04  2.7358e-05  1.8489e-01  8.3628e-02  0:00:18  492
     9  2.7459e-01  1.0385e-04  2.1551e-05  1.7119e-01  6.1267e-02  0:00:17  491
    10  2.5238e-01  7.6619e-05  1.8942e-05  1.5931e-01  4.8278e-02  0:00:16  490
    11  2.3671e-01  5.7005e-05  1.8329e-05  1.4410e-01  4.2058e-02  0:00:15  489

  iter  continuity  x-velocity  y-velocity           k       omega     time/iter
    12  2.2339e-01  4.4239e-05  1.8455e-05  1.2249e-01  3.7760e-02  0:00:14  488
    13  2.1302e-01  3.6266e-05  1.8377e-05  1.0951e-01  3.5513e-02  0:00:14  487
    14  2.0348e-01  3.6054e-05  1.8534e-05  1.0470e-01  3.3628e-02  0:00:14  486

 Reversed flow on 1 face (0.1% area) of pressure-outlet 3.
    15  1.9429e-01  4.2055e-05  1.8515e-05  9.4160e-02  3.2595e-02  0:00:13  485

 Reversed flow on 2 faces (0.2% area) of pressure-outlet 3.
    16  1.8493e-01  4.9882e-05  1.8409e-05  8.2904e-02  3.1440e-02  0:00:13  484

 Reversed flow on 3 faces (0.4% area) of pressure-outlet 3.
    17  1.7544e-01  5.7527e-05  1.8176e-05  7.3775e-02  3.0315e-02  0:00:13  483

 Reversed flow on 4 faces (0.6% area) of pressure-outlet 3.
    18  1.6508e-01  6.5143e-05  1.7926e-05  6.2849e-02  2.9188e-02  0:00:13  482

 Reversed flow on 7 faces (1.2% area) of pressure-outlet 3.
    19  1.5475e-01  7.2504e-05  1.7775e-05  5.5655e-02  2.8768e-02  0:00:13  481

 Reversed flow on 10 faces (1.8% area) of pressure-outlet 3.
    20  1.4408e-01  7.9479e-05  1.7601e-05  4.9095e-02  2.8344e-02  0:00:13  480

 Reversed flow on 12 faces (2.3% area) of pressure-outlet 3.
    21  1.3344e-01  8.6275e-05  1.7433e-05  4.3003e-02  2.8146e-02  0:00:13  479

 Reversed flow on 15 faces (3.3% area) of pressure-outlet 3.
    22  1.2258e-01  9.3033e-05  1.7321e-05  3.7795e-02  2.7987e-02  0:00:13  478

 Reversed flow on 18 faces (4.8% area) of pressure-outlet 3.

  iter  continuity  x-velocity  y-velocity           k       omega     time/iter
    23  1.1179e-01  9.9668e-05  1.7178e-05  3.3788e-02  2.8107e-02  0:00:13  477

 Reversed flow on 20 faces (5.9% area) of pressure-outlet 3.
    24  1.0119e-01  1.0689e-04  1.7160e-05  3.0891e-02  2.8379e-02  0:00:13  476

 Reversed flow on 21 faces (6.9% area) of pressure-outlet 3.
    25  9.1187e-02  1.1452e-04  1.7201e-05  2.9263e-02  2.8538e-02  0:00:13  475

 Reversed flow on 23 faces (8.5% area) of pressure-outlet 3.
    26  8.1643e-02  1.2265e-04  1.7163e-05  2.8414e-02  2.8733e-02  0:00:13  474

 Reversed flow on 25 faces (9.7% area) of pressure-outlet 3.
    27  7.2858e-02  1.3133e-04  1.7255e-05  2.8200e-02  2.9064e-02  0:00:13  473

 Reversed flow on 27 faces (11.8% area) of pressure-outlet 3.
    28  6.4607e-02  1.4091e-04  1.7682e-05  2.9514e-02  2.9308e-02  0:00:13  472

 Reversed flow on 28 faces (12.8% area) of pressure-outlet 3.
    29  5.7068e-02  1.5221e-04  1.8424e-05  3.0149e-02  2.9062e-02  0:00:13  471

 Reversed flow on 31 faces (16.9% area) of pressure-outlet 3.
    30  5.0429e-02  1.6507e-04  1.9540e-05  2.8411e-02  2.9202e-02  0:00:13  470

 Reversed flow on 32 faces (18.5% area) of pressure-outlet 3.
    31  4.4426e-02  1.7896e-04  2.1285e-05  2.4951e-02  2.8491e-02  0:00:13  469

 Reversed flow on 32 faces (18.9% area) of pressure-outlet 3.
    32  3.9637e-02  1.9590e-04  2.3062e-05  2.2581e-02  2.8986e-02  0:00:13  468

 Reversed flow on 34 faces (22.8% area) of pressure-outlet 3.
    33  3.5563e-02  2.2027e-04  2.5315e-05  2.2375e-02  2.9105e-02  0:00:13  467

 Reversed flow on 35 faces (25.7% area) of pressure-outlet 3.

  iter  continuity  x-velocity  y-velocity           k       omega     time/iter
    34  3.2419e-02  2.5257e-04  2.9046e-05  2.3597e-02  2.8830e-02  0:00:13  466

 Reversed flow on 38 faces (33.3% area) of pressure-outlet 3.
    35  2.9610e-02  2.9536e-04  3.4550e-05  2.5845e-02  2.8863e-02  0:00:13  465

 Reversed flow on 39 faces (36.2% area) of pressure-outlet 3.
    36  2.8081e-02  3.5425e-04  4.1984e-05  2.7926e-02  2.8549e-02  0:00:13  464

 Reversed flow on 43 faces (52.6% area) of pressure-outlet 3.
    37  2.7643e-02  4.2062e-04  5.2793e-05  2.9243e-02  2.7491e-02  0:00:13  463

 Reversed flow on 46 faces (69.1% area) of pressure-outlet 3.
    38  2.9141e-02  4.6413e-04  6.4561e-05  2.9720e-02  2.4722e-02  0:00:13  462

 Reversed flow on 50 faces (100.0% area) of pressure-outlet 3.
    39  3.2514e-02  4.4684e-04  6.7271e-05  2.7187e-02  2.2815e-02  0:00:13  461

 Reversed flow on 50 faces (100.0% area) of pressure-outlet 3.
    40  3.6421e-02  3.9053e-04  6.3003e-05  2.4230e-02  2.2467e-02  0:00:13  460

 Reversed flow on 50 faces (100.0% area) of pressure-outlet 3.
    41  3.9155e-02  3.3334e-04  5.7015e-05  2.2187e-02  2.0183e-02  0:00:13  459

 Reversed flow on 50 faces (100.0% area) of pressure-outlet 3.
    42  4.1035e-02  2.5305e-04  4.9476e-05  2.0092e-02  2.0385e-02  0:00:13  458

 Reversed flow on 50 faces (100.0% area) of pressure-outlet 3.
    43  4.1818e-02  1.7645e-04  4.4590e-05  1.7624e-02  2.1530e-02  0:00:13  457

 Reversed flow on 50 faces (100.0% area) of pressure-outlet 3.
    44  4.1826e-02  1.0966e-04  4.3303e-05  1.4936e-02  2.4800e-02  0:00:13  456

 Reversed flow on 50 faces (100.0% area) of pressure-outlet 3.

  iter  continuity  x-velocity  y-velocity           k       omega     time/iter
    45  4.1454e-02  7.6890e-05  4.5792e-05  1.3186e-02  2.8408e-02  0:00:13  455

 Reversed flow on 50 faces (100.0% area) of pressure-outlet 3.
    46  3.9734e-02  1.3118e-04  5.4772e-05  1.2388e-02  3.2002e-02  0:00:13  454

 Reversed flow on 50 faces (100.0% area) of pressure-outlet 3.
    47  3.7243e-02  2.2680e-04  6.7835e-05  1.4333e-02  3.5427e-02  0:00:13  453

 Reversed flow on 40 faces (98.4% area) of pressure-outlet 3.
    48  3.3909e-02  3.1724e-04  8.0609e-05  1.9124e-02  3.6873e-02  0:00:13  452
    49  3.0379e-02  3.4759e-04  7.9658e-05  2.0233e-02  2.9770e-02  0:00:13  451
    50  2.1649e-02  2.5042e-04  5.2460e-05  1.5973e-02  2.7116e-02  0:00:13  450
    51  1.5026e-02  1.8166e-04  2.9568e-05  1.2342e-02  2.9086e-02  0:00:13  449
    52  1.0464e-02  1.4204e-04  1.7898e-05  1.0380e-02  2.6730e-02  0:00:13  448
    53  7.1023e-03  1.1552e-04  1.1772e-05  9.1811e-03  2.1825e-02  0:00:12  447
    54  4.8977e-03  9.5897e-05  8.3416e-06  8.3312e-03  1.6744e-02  0:00:12  446
    55  4.0098e-03  8.0549e-05  6.4554e-06  7.6379e-03  1.2693e-02  0:00:12  445

  iter  continuity  x-velocity  y-velocity           k       omega     time/iter
    56  4.1761e-03  6.7896e-05  5.2609e-06  7.0166e-03  9.7699e-03  0:00:12  444
    57  4.8856e-03  5.6910e-05  4.6153e-06  6.4163e-03  7.7243e-03  0:00:12  443
    58  5.6737e-03  4.7449e-05  4.3042e-06  5.8366e-03  6.4626e-03  0:00:12  442
    59  6.3159e-03  3.9307e-05  4.0467e-06  5.2705e-03  5.7398e-03  0:00:11  441
    60  6.8350e-03  3.2222e-05  3.7576e-06  4.7385e-03  5.3635e-03  0:00:12  440
    61  7.2414e-03  2.6029e-05  3.4992e-06  4.2385e-03  5.1812e-03  0:00:12  439
    62  7.4957e-03  2.0558e-05  3.2970e-06  3.7590e-03  5.0565e-03  0:00:12  438
    63  7.6220e-03  1.5776e-05  3.1494e-06  3.2966e-03  4.9367e-03  0:00:12  437
    64  7.6405e-03  1.1642e-05  3.0729e-06  2.8642e-03  4.7943e-03  0:00:12  436
    65  7.5597e-03  8.1732e-06  3.0100e-06  2.4722e-03  4.6301e-03  0:00:12  435
    66  7.3937e-03  5.9149e-06  2.9584e-06  2.1314e-03  4.4212e-03  0:00:12  434

  iter  continuity  x-velocity  y-velocity           k       omega     time/iter
    67  7.1617e-03  5.6115e-06  2.9157e-06  1.8430e-03  4.1814e-03  0:00:11  433
    68  6.8696e-03  6.7874e-06  2.8568e-06  1.6071e-03  3.9042e-03  0:00:12  432
    69  6.5286e-03  8.7629e-06  2.8093e-06  1.4385e-03  3.6131e-03  0:00:11  431
    70  6.1443e-03  1.0825e-05  2.7540e-06  1.3610e-03  3.3240e-03  0:00:44  430
    71  5.7299e-03  1.2715e-05  2.6887e-06  1.3703e-03  3.0424e-03  0:00:38  429
    72  5.2837e-03  1.4388e-05  2.6071e-06  1.4744e-03  2.8320e-03  0:00:33  428
    73  4.8141e-03  1.5818e-05  2.5049e-06  1.6624e-03  2.7524e-03  0:00:28  427
    74  4.3349e-03  1.6996e-05  2.3911e-06  1.9097e-03  2.7638e-03  0:00:25  426
    75  3.8516e-03  1.7906e-05  2.2660e-06  2.1671e-03  2.8229e-03  0:00:22  425
    76  3.3769e-03  1.8560e-05  2.1356e-06  2.4103e-03  2.9245e-03  0:00:20  424
    77  2.9138e-03  1.8981e-05  1.9920e-06  2.6317e-03  3.0728e-03  0:00:18  423

  iter  continuity  x-velocity  y-velocity           k       omega     time/iter
    78  2.4613e-03  1.9148e-05  1.8461e-06  2.8141e-03  3.2179e-03  0:00:17  422
    79  2.0418e-03  1.9067e-05  1.7040e-06  2.9479e-03  3.3201e-03  0:00:16  421
    80  1.6859e-03  1.8740e-05  1.5715e-06  3.0308e-03  3.3815e-03  0:00:15  420
    81  1.4066e-03  1.8170e-05  1.4404e-06  3.0547e-03  3.3712e-03  0:00:14  419
    82  1.2006e-03  1.7396e-05  1.3223e-06  3.0199e-03  3.2892e-03  0:00:14  418
    83  1.0819e-03  1.6438e-05  1.2055e-06  2.9289e-03  3.1504e-03  0:00:13  417
    84  1.0268e-03  1.5339e-05  1.1141e-06  2.7856e-03  2.9575e-03  0:00:12  416
    85  1.0518e-03  1.4091e-05  1.0343e-06  2.6017e-03  2.7317e-03  0:00:12  415
    86  1.1356e-03  1.2749e-05  9.6169e-07  2.3910e-03  2.5002e-03  0:00:12  414
    87  1.2599e-03  1.1355e-05  9.2634e-07  2.1613e-03  2.2908e-03  0:00:12  413
    88  1.3688e-03  9.9366e-06  9.1016e-07  1.9244e-03  2.1223e-03  0:00:12  412

  iter  continuity  x-velocity  y-velocity           k       omega     time/iter
    89  1.4560e-03  8.5493e-06  8.9014e-07  1.6874e-03  1.9909e-03  0:00:11  411
    90  1.5222e-03  7.2408e-06  8.6392e-07  1.4586e-03  1.8932e-03  0:00:11  410
    91  1.5604e-03  6.0504e-06  8.2706e-07  1.2503e-03  1.8049e-03  0:00:11  409
    92  1.5742e-03  4.9897e-06  7.9451e-07  1.0714e-03  1.7153e-03  0:00:11  408
    93  1.5653e-03  4.0155e-06  7.6291e-07  9.1777e-04  1.6223e-03  0:00:11  407
    94  1.5357e-03  3.1262e-06  7.3129e-07  7.8785e-04  1.5259e-03  0:00:12  406
    95  1.4861e-03  2.3413e-06  7.0404e-07  6.8252e-04  1.4273e-03  0:00:12  405
    96  1.4212e-03  1.8670e-06  6.7849e-07  6.0561e-04  1.3242e-03  0:00:11  404
    97  1.3407e-03  2.4113e-06  6.5126e-07  5.5353e-04  1.2218e-03  0:00:11  403
    98  1.2502e-03  3.0018e-06  6.2717e-07  5.2224e-04  1.1316e-03  0:00:11  402
    99  1.1520e-03  3.4889e-06  5.9795e-07  5.0596e-04  1.0585e-03  0:00:11  401

  iter  continuity  x-velocity  y-velocity           k       omega     time/iter
   100  1.0480e-03  3.8683e-06  5.6781e-07  4.9794e-04  1.0027e-03  0:00:11  400
   101  9.4037e-04  4.1411e-06  5.3437e-07  4.9618e-04  9.5244e-04  0:00:11  399
!  101 solution is converged

> 
adjoint/                parallel/               server/
define/                 parametric-study/       solve/
display/                plot/                   surface/
exit                    preferences/            views/
file/                   print-license-usage
mesh/                   report/

> ; ── ポスト処理 ───────────────────────────────────────────────
; x = L/2 の縦断面ライン
/surface/line-surface
new surface id/name [line-5] centerline
x0 (in [m]) [0] 0.5 0
x1 (in [m]) [0] 0.5 0.05

> 
adjoint/                parallel/               server/
define/                 parametric-study/       solve/
display/                plot/                   surface/
exit                    preferences/            views/
file/                   print-license-usage
mesh/                   report/

> ; 速度プロファイル出力 (nodenumber x y x-velocity の順)
/file/export/ascii "/home/aoki/Downloads/cfd_wall_function_tst/velocity_profile.dat" centerline () no x-velocity ()
 no

Writing "/home/aoki/Downloads/cfd_wall_function_tst/velocity_profile.dat"...

Writing information to ascii file ...
Done.


> 
adjoint/                parallel/               server/
define/                 parametric-study/       solve/
display/                plot/                   surface/
exit                    preferences/            views/
file/                   print-license-usage
mesh/                   report/

> ; 壁面せん断応力 (面積加重平均) 出力
/report/surface-integrals/area-weighted-avg
Available surfaces: (centerline inlet outlet bottom-wall top-wall interior-6)
Select surface names/ids(1) [()] bottom-wall
Select surface names/ids(2) [()] ()

area-weighted-avg of> wall-shear
Write to file? [no] yes
filename (*.srp) [""] "/home/aoki/Downloads/cfd_wall_function_tst/wall_shear.dat"

> 
adjoint/                parallel/               server/
define/                 parametric-study/       solve/
display/                plot/                   surface/
exit                    preferences/            views/
file/                   print-license-usage
mesh/                   report/

> /exit yes

Posting ANSYS Product Improvement Program performance data 
Done.
Auto-Transcript Stop Time:  10:54:34, 23 Mar 2026 
Total Transcript Time: 0 Minute 19 Second.
